@<TRIPOS>MOLECULE
protonated viologen
   58    59     0     0     0
SMALL
USER_CHARGES

@<TRIPOS>ATOM
      1 C1          0.9694   -4.1585   -0.6368 C.ar      1 <0>        -0.1228
      2 C2          3.0087   -4.8201    0.4616 C.ar      1 <0>        -0.1226
      3 C3          1.4533   -6.3418   -2.4955 C.ar      1 <0>        -0.1226
      4 C4          2.5755   -7.4598   -0.6806 C.ar      1 <0>        -0.1226
      5 C5          0.9832   -2.9886    0.1092 C.ar      1 <0>        -0.0125
      6 C6          2.9710   -3.6334    1.1798 C.ar      1 <0>        -0.0125
      7 C7          1.4790   -7.5340   -3.2052 C.ar      1 <0>        -0.0125
      8 C8          2.5727   -8.6237   -1.4361 C.ar      1 <0>        -0.0125
      9 C9          1.9951   -5.0813   -0.4554 C.ar      1 <0>         0.0352
     10 C10         2.0086   -6.3090   -1.2200 C.ar      1 <0>         0.0352
     11 C11        -0.6111   -3.8681    7.1285 C.2       1 <0>         0.6225
     12 C12         8.0306   -9.4042   -5.6305 C.2       1 <0>         0.6225
     13 C13         0.4071   -3.8506    6.0158 C.3       1 <0>        -0.1788
     14 C14         6.9966   -9.4128   -4.5323 C.3       1 <0>        -0.1788
     15 C15         0.1993   -2.6847    5.0536 C.3       1 <0>        -0.0746
     16 C16         5.5880   -9.6688   -5.0597 C.3       1 <0>        -0.0746
     17 C17         1.2441   -2.6573    3.9335 C.3       1 <0>        -0.0827
     18 C18         4.5405   -9.6947   -3.9421 C.3       1 <0>        -0.0827
     19 C19         0.9878   -1.4972    2.9658 C.3       1 <0>        -0.0984
     20 C20         3.1338   -9.9187   -4.5069 C.3       1 <0>        -0.0984
     21 C21         1.9589   -1.4806    1.7798 C.3       1 <0>        -0.0248
     22 C22         2.0416   -9.8672   -3.4325 C.3       1 <0>        -0.0248
     23 N1          1.9715   -2.7623    0.9854 N.ar      1 <0>         0.0563
     24 N2          2.0312   -8.6273   -2.6618 N.ar      1 <0>         0.0563
     25 O1         -1.4747   -3.0136    7.2787 O.2       1 <0>        -0.4801
     26 O2          7.7805   -9.6318   -6.8070 O.2       1 <0>        -0.4801
     27 O3         -0.4705   -4.9397    7.9478 O.3       1 <0>        -0.5577
     28 O4          9.2739   -9.1115   -5.1745 O.3       1 <0>        -0.5577
     29 H1          0.1655   -4.3364   -1.3451 H         1 <0>         0.2008
     30 H2          3.8218   -5.5217    0.6233 H         1 <0>         0.2008
     31 H3          1.0048   -5.4589   -2.9415 H         1 <0>         0.2008
     32 H4          3.0154   -7.4634    0.3124 H         1 <0>         0.2008
     33 H5          0.2183   -2.2270    0.0208 H         1 <0>         0.2280
     34 H6          3.7257   -3.3642    1.9087 H         1 <0>         0.2280
     35 H7          1.0666   -7.6328   -4.2017 H         1 <0>         0.2280
     36 H8          2.9951   -9.5555   -1.0802 H         1 <0>         0.2280
     37 H9          1.4074   -3.8130    6.4626 H         1 <0>         0.0762
     38 H10         0.3469   -4.8056    5.4809 H         1 <0>         0.0762
     39 H11         7.2806  -10.1732   -3.7956 H         1 <0>         0.0762
     40 H12         7.0425   -8.4497   -4.0106 H         1 <0>         0.0762
     41 H13        -0.7997   -2.7747    4.6100 H         1 <0>         0.0699
     42 H14         0.2233   -1.7339    5.5994 H         1 <0>         0.0699
     43 H15         5.3338   -8.8734   -5.7709 H         1 <0>         0.0699
     44 H16         5.5564  -10.6153   -5.6126 H         1 <0>         0.0699
     45 H17         2.2444   -2.5613    4.3695 H         1 <0>         0.0578
     46 H18         1.2175   -3.6061    3.3841 H         1 <0>         0.0578
     47 H19         4.7850  -10.4913   -3.2310 H         1 <0>         0.0578
     48 H20         4.5681   -8.7465   -3.3917 H         1 <0>         0.0578
     49 H21         1.0353   -0.5464    3.5105 H         1 <0>         0.0685
     50 H22        -0.0320   -1.5835    2.5702 H         1 <0>         0.0685
     51 H23         3.0995  -10.8770   -5.0394 H         1 <0>         0.0685
     52 H24         2.9203   -9.1382   -5.2478 H         1 <0>         0.0685
     53 H25         1.7274   -0.6315    1.1244 H         1 <0>         0.1103
     54 H26         2.9755   -1.2991    2.1518 H         1 <0>         0.1103
     55 H27         1.0604  -10.0336   -3.8947 H         1 <0>         0.1103
     56 H28         2.1859  -10.7021   -2.7347 H         1 <0>         0.1103
     57 H29        -1.1176   -4.9885    8.6837 H         1 <0>         0.4303
     58 H30         9.9750   -9.0931   -5.8606 H         1 <0>         0.4303
@<TRIPOS>BOND
     1    1    5 ar
     2    1    9 ar
     3    2    6 ar
     4    2    9 ar
     5    3    7 ar
     6    3   10 ar
     7    4    8 ar
     8    4   10 ar
     9    5   23 ar
    10    6   23 ar
    11    7   24 ar
    12    8   24 ar
    13    9   10 1
    14   11   13 1
    15   11   25 2
    16   11   27 1
    17   12   14 1
    18   12   26 2
    19   12   28 1
    20   13   15 1
    21   14   16 1
    22   15   17 1
    23   16   18 1
    24   17   19 1
    25   18   20 1
    26   19   21 1
    27   20   22 1
    28   21   23 1
    29   22   24 1
    30    1   29 1
    31    2   30 1
    32    3   31 1
    33    4   32 1
    34    5   33 1
    35    6   34 1
    36    7   35 1
    37    8   36 1
    38   13   37 1
    39   13   38 1
    40   14   39 1
    41   14   40 1
    42   15   41 1
    43   15   42 1
    44   16   43 1
    45   16   44 1
    46   17   45 1
    47   17   46 1
    48   18   47 1
    49   18   48 1
    50   19   49 1
    51   19   50 1
    52   20   51 1
    53   20   52 1
    54   21   53 1
    55   21   54 1
    56   22   55 1
    57   22   56 1
    58   27   57 1
    59   28   58 1
