@<TRIPOS>MOLECULE
CUC
  126   147     1     0     0
SMALL
bcc


@<TRIPOS>ATOM
      1 N1          5.0540   10.5700   13.1330 n         1 CUC     -0.478800
      2 N2          7.4900   10.1420   13.4020 n         1 CUC     -0.511800
      3 N3          4.8610    8.5480   12.1000 n         1 CUC     -0.511800
      4 N4          7.3190    8.1990   12.2110 n         1 CUC     -0.478800
      5 N5          4.4780    6.1210   11.9190 n         1 CUC     -0.478800
      6 N6          6.9320    5.7630   12.0880 n         1 CUC     -0.511800
      7 N7          4.1480    4.0600   12.8430 n         1 CUC     -0.511800
      8 N8          6.6010    3.6550   12.8930 n         1 CUC     -0.478800
      9 N9          3.7380    2.4040   14.6240 n         1 CUC     -0.478800
     10 N10         6.2020    2.1050   14.7690 n         1 CUC     -0.511800
     11 N11         3.5670    1.8350   16.8270 n         1 CUC     -0.511800
     12 N12         6.0170    1.4400   16.9450 n         1 CUC     -0.478800
     13 N13         3.4780    2.2250   19.2610 n         1 CUC     -0.478800
     14 N14         5.9370    1.8800   19.3710 n         1 CUC     -0.511800
     15 N15         3.6000    3.5570   21.1090 n         1 CUC     -0.511800
     16 N16         6.0500    3.1560   21.2580 n         1 CUC     -0.478800
     17 N17         3.8100    5.6810   22.3440 n         1 CUC     -0.478800
     18 N18         6.2680    5.3240   22.4120 n         1 CUC     -0.511800
     19 N19         4.1530    7.9330   22.4480 n         1 CUC     -0.511800
     20 N20         6.6080    7.5730   22.5950 n         1 CUC     -0.478800
     21 N21         4.5350   10.1900   21.5250 n         1 CUC     -0.478800
     22 N22         6.9910    9.8240   21.6680 n         1 CUC     -0.511800
     23 N23         4.8860   11.6320   19.7890 n         1 CUC     -0.511800
     24 N24         7.3460   11.3540   20.0170 n         1 CUC     -0.478800
     25 N25         5.0710   12.3810   17.4420 n         1 CUC     -0.478800
     26 N26         7.5070   11.9250   17.6260 n         1 CUC     -0.511800
     27 N27         5.2080   11.8770   15.2170 n         1 CUC     -0.511800
     28 N28         7.6760   11.6300   15.3670 n         1 CUC     -0.478800
     29 C1          4.2530    9.4060   13.0470 c         1 CUC      0.805500
     30 C2          7.9800    8.8160   13.2990 c         1 CUC      0.805500
     31 C3          6.3670   10.4050   12.4620 c3        1 CUC      0.236100
     32 H1          6.5820   11.2870   11.8030 h2        1 CUC      0.074700
     33 C4          6.2060    9.0230   11.6810 c3        1 CUC      0.236100
     34 H2          6.2760    9.1090   10.5650 h2        1 CUC      0.074700
     35 C5          4.1450    7.4610   11.4080 c3        1 CUC      0.284400
     36 H3          3.0370    7.6220   11.5360 h2        1 CUC      0.126700
     37 H4          4.4030    7.4950   10.3150 h2        1 CUC      0.042700
     38 C6          7.7240    6.9140   11.6160 c3        1 CUC      0.284400
     39 H5          8.8060    6.7330   11.8710 h2        1 CUC      0.126700
     40 H6          7.6110    6.9950   10.5000 h2        1 CUC      0.042700
     41 C7          3.6760    5.3960   12.8300 c         1 CUC      0.805500
     42 C8          7.4150    4.8070   13.0130 c         1 CUC      0.805500
     43 C9          5.6550    5.3470   11.4520 c3        1 CUC      0.236100
     44 H7          5.7300    5.3790   10.3340 h2        1 CUC      0.074700
     45 C10         5.3990    3.8920   12.0560 c3        1 CUC      0.236100
     46 H8          5.2900    3.0850   11.2860 h2        1 CUC      0.074700
     47 C11         3.3370    2.9190   13.3040 c3        1 CUC      0.284400
     48 H9          3.4310    2.0820   12.5600 h2        1 CUC      0.042700
     49 H10         2.2600    3.2440   13.3670 h2        1 CUC      0.126700
     50 C12         6.9160    2.3530   13.5030 c3        1 CUC      0.284400
     51 H11         6.6440    1.5470   12.7690 h2        1 CUC      0.042700
     52 H12         8.0240    2.3200   13.7030 h2        1 CUC      0.126700
     53 C13         3.0780    2.7200   15.8360 c         1 CUC      0.805500
     54 C14         6.8220    2.1700   16.0400 c         1 CUC      0.805500
     55 C15         4.8650    1.4580   14.8210 c3        1 CUC      0.236100
     56 H13         4.7960    0.6080   14.0940 h2        1 CUC      0.074700
     57 C16         4.7200    1.0280   16.3510 c3        1 CUC      0.236100
     58 H14         4.5420   -0.0670   16.5090 h2        1 CUC      0.074700
     59 C17         2.8690    1.5620   18.0960 c3        1 CUC      0.284400
     60 H15         2.8750    0.4520   18.2790 h2        1 CUC      0.042700
     61 H16         1.8050    1.9200   18.0030 h2        1 CUC      0.126700
     62 C18         6.4560    1.0250   18.2880 c3        1 CUC      0.284400
     63 H17         7.5820    1.0570   18.3170 h2        1 CUC      0.126700
     64 H18         6.1070   -0.0290   18.4640 h2        1 CUC      0.042700
     65 C19         2.9770    3.4120   19.8470 c         1 CUC      0.805500
     66 C20         6.7150    2.8510   20.0460 c         1 CUC      0.805500
     67 C21         4.6200    1.6530   20.0180 c3        1 CUC      0.236100
     68 H19         4.4540    0.5640   20.2250 h2        1 CUC      0.074700
     69 C22         4.6890    2.5690   21.3250 c3        1 CUC      0.236100
     70 H20         4.5460    2.0140   22.2880 h2        1 CUC      0.074700
     71 C23         3.0750    4.4150   22.1860 c3        1 CUC      0.284400
     72 H21         1.9990    4.6580   21.9580 h2        1 CUC      0.126700
     73 H22         3.1340    3.8510   23.1570 h2        1 CUC      0.042700
     74 C24         6.6640    3.9040   22.3670 c3        1 CUC      0.284400
     75 H23         6.3610    3.4150   23.3330 h2        1 CUC      0.042700
     76 H24         7.7830    3.8470   22.2540 h2        1 CUC      0.126700
     77 C25         3.3660    6.9260   21.8400 c         1 CUC      0.805500
     78 C26         7.1170    6.3860   22.0190 c         1 CUC      0.805500
     79 C27         5.0600    5.7980   23.1360 c3        1 CUC      0.236100
     80 H25         4.9530    5.2830   24.1260 h2        1 CUC      0.074700
     81 C28         5.2840    7.3750   23.2350 c3        1 CUC      0.236100
     82 H26         5.2820    7.7770   24.2820 h2        1 CUC      0.074700
     83 C29         3.7820    9.3590   22.4800 c3        1 CUC      0.284400
     84 H27         2.6860    9.4470   22.2380 h2        1 CUC      0.126700
     85 H28         3.9700    9.7540   23.5150 h2        1 CUC      0.042700
     86 C30         7.3640    8.8330   22.6920 c3        1 CUC      0.284400
     87 H29         7.1810    9.2780   23.7080 h2        1 CUC      0.042700
     88 H30         8.4600    8.5980   22.5790 h2        1 CUC      0.126700
     89 C31         4.0340   10.6080   20.2700 c         1 CUC      0.805500
     90 C32         7.7720   10.1010   20.5210 c         1 CUC      0.805500
     91 C33         5.8630   10.7770   21.8340 c3        1 CUC      0.236100
     92 H31         5.8680   11.2300   22.8590 h2        1 CUC      0.074700
     93 C34         6.0860   11.8210   20.6470 c3        1 CUC      0.236100
     94 H32         6.1850   12.8860   20.9810 h2        1 CUC      0.074700
     95 C35         4.4760   12.6150   18.7680 c3        1 CUC      0.284400
     96 H33         3.3550   12.5740   18.6590 h2        1 CUC      0.126700
     97 H34         4.7800   13.6420   19.1090 h2        1 CUC      0.042700
     98 C36         8.0640   12.1110   18.9800 c3        1 CUC      0.284400
     99 H35         9.1380   11.7730   18.9800 h2        1 CUC      0.126700
    100 H36         8.0160   13.2020   19.2480 h2        1 CUC      0.042700
    101 C37         4.4130   11.7170   16.3800 c         1 CUC      0.805500
    102 C38         8.1570   11.1710   16.6170 c         1 CUC      0.805500
    103 C39         6.4440   12.8090   17.0780 c3        1 CUC      0.236100
    104 H37         6.6100   13.8800   17.3680 h2        1 CUC      0.074700
    105 C40         6.5100   12.5360   15.5070 c3        1 CUC      0.236100
    106 H38         6.6530   13.4570   14.8840 h2        1 CUC      0.074700
    107 C41         4.6590   11.7930   13.8500 c3        1 CUC      0.284400
    108 H39         3.5340   11.8150   13.9070 h2        1 CUC      0.126700
    109 H40         5.0180   12.6760   13.2550 h2        1 CUC      0.042700
    110 C42         8.2370   11.2270   14.0660 c3        1 CUC      0.284400
    111 H41         8.2410   12.1310   13.3980 h2        1 CUC      0.042700
    112 H42         9.2970   10.8850   14.2370 h2        1 CUC      0.126700
    113 O1          8.8710    8.3260   13.9730 o         1 CUC     -0.579500
    114 O2          3.1830    9.2230   13.6010 o         1 CUC     -0.579500
    115 O3          2.7010    5.8190   13.4290 o         1 CUC     -0.579500
    116 O4          8.4110    4.9170   13.7080 o         1 CUC     -0.579500
    117 O5          9.0390   10.3480   16.7940 o         1 CUC     -0.579500
    118 O6          2.1800    3.5330   15.9790 o         1 CUC     -0.579500
    119 O7          7.8990    2.6860   16.2890 o         1 CUC     -0.579500
    120 O8          2.1020    4.1270   19.3890 o         1 CUC     -0.579500
    121 O9          7.8060    3.2700   19.6960 o         1 CUC     -0.579500
    122 O10         2.4160    7.1060   21.0980 o         1 CUC     -0.579500
    123 O11         8.1480    6.2820   21.3750 o         1 CUC     -0.579500
    124 O12         3.0090   10.2180   19.7360 o         1 CUC     -0.579500
    125 O13         8.7100    9.4390   20.1100 o         1 CUC     -0.579500
    126 O14         3.3200   11.1800   16.4320 o         1 CUC     -0.579500
@<TRIPOS>BOND
     1    1   29 1   
     2    1   31 1   
     3    1  107 1   
     4    2   30 1   
     5    2   31 1   
     6    2  110 1   
     7    3   29 1   
     8    3   33 1   
     9    3   35 1   
    10    4   30 1   
    11    4   33 1   
    12    4   38 1   
    13    5   35 1   
    14    5   41 1   
    15    5   43 1   
    16    6   38 1   
    17    6   42 1   
    18    6   43 1   
    19    7   41 1   
    20    7   45 1   
    21    7   47 1   
    22    8   42 1   
    23    8   45 1   
    24    8   50 1   
    25    9   47 1   
    26    9   53 1   
    27    9   55 1   
    28   10   50 1   
    29   10   54 1   
    30   10   55 1   
    31   11   53 1   
    32   11   57 1   
    33   11   59 1   
    34   12   54 1   
    35   12   57 1   
    36   12   62 1   
    37   13   59 1   
    38   13   65 1   
    39   13   67 1   
    40   14   62 1   
    41   14   66 1   
    42   14   67 1   
    43   15   65 1   
    44   15   69 1   
    45   15   71 1   
    46   16   66 1   
    47   16   69 1   
    48   16   74 1   
    49   17   71 1   
    50   17   77 1   
    51   17   79 1   
    52   18   74 1   
    53   18   78 1   
    54   18   79 1   
    55   19   77 1   
    56   19   81 1   
    57   19   83 1   
    58   20   78 1   
    59   20   81 1   
    60   20   86 1   
    61   21   83 1   
    62   21   89 1   
    63   21   91 1   
    64   22   86 1   
    65   22   90 1   
    66   22   91 1   
    67   23   89 1   
    68   23   93 1   
    69   23   95 1   
    70   24   90 1   
    71   24   93 1   
    72   24   98 1   
    73   25   95 1   
    74   25  101 1   
    75   25  103 1   
    76   26   98 1   
    77   26  102 1   
    78   26  103 1   
    79   27  101 1   
    80   27  105 1   
    81   27  107 1   
    82   28  102 1   
    83   28  105 1   
    84   28  110 1   
    85   29  114 2   
    86   30  113 2   
    87   31   32 1   
    88   31   33 1   
    89   33   34 1   
    90   35   36 1   
    91   35   37 1   
    92   38   39 1   
    93   38   40 1   
    94   41  115 2   
    95   42  116 2   
    96   43   44 1   
    97   43   45 1   
    98   45   46 1   
    99   47   48 1   
   100   47   49 1   
   101   50   51 1   
   102   50   52 1   
   103   53  118 2   
   104   54  119 2   
   105   55   56 1   
   106   55   57 1   
   107   57   58 1   
   108   59   60 1   
   109   59   61 1   
   110   62   63 1   
   111   62   64 1   
   112   65  120 2   
   113   66  121 2   
   114   67   68 1   
   115   67   69 1   
   116   69   70 1   
   117   71   72 1   
   118   71   73 1   
   119   74   75 1   
   120   74   76 1   
   121   77  122 2   
   122   78  123 2   
   123   79   80 1   
   124   79   81 1   
   125   81   82 1   
   126   83   84 1   
   127   83   85 1   
   128   86   87 1   
   129   86   88 1   
   130   89  124 2   
   131   90  125 2   
   132   91   92 1   
   133   91   93 1   
   134   93   94 1   
   135   95   96 1   
   136   95   97 1   
   137   98   99 1   
   138   98  100 1   
   139  101  126 2   
   140  102  117 2   
   141  103  104 1   
   142  103  105 1   
   143  105  106 1   
   144  107  108 1   
   145  107  109 1   
   146  110  111 1   
   147  110  112 1   
@<TRIPOS>SUBSTRUCTURE
     1 CUC         1 TEMP              0 ****  ****    0 ROOT
