@<TRIPOS>MOLECULE
protonated
   58    59     1     0     0
SMALL
No Charge or Current Charge


@<TRIPOS>ATOM
      1 C1          0.9690   -4.1590   -0.6370 cc        1 <0>     -0.122800
      2 C2          3.0090   -4.8200    0.4620 cc        1 <0>     -0.122600
      3 C3          1.4530   -6.3420   -2.4950 cd        1 <0>     -0.122600
      4 C4          2.5750   -7.4600   -0.6810 cd        1 <0>     -0.122600
      5 C5          0.9830   -2.9890    0.1090 cd        1 <0>     -0.012500
      6 C6          2.9710   -3.6330    1.1800 cd        1 <0>     -0.012500
      7 C7          1.4790   -7.5340   -3.2050 cc        1 <0>     -0.012500
      8 C8          2.5730   -8.6240   -1.4360 cc        1 <0>     -0.012500
      9 C9          1.9950   -5.0810   -0.4550 cc        1 <0>      0.035200
     10 C10         2.0090   -6.3090   -1.2200 cd        1 <0>      0.035200
     11 C11        -0.6110   -3.8680    7.1280 c         1 <0>      0.622500
     12 C12         8.0310   -9.4040   -5.6300 c         1 <0>      0.622500
     13 C13         0.4070   -3.8510    6.0160 c3        1 <0>     -0.178800
     14 C14         6.9970   -9.4130   -4.5320 c3        1 <0>     -0.178800
     15 C15         0.1990   -2.6850    5.0540 c3        1 <0>     -0.074600
     16 C16         5.5880   -9.6690   -5.0600 c3        1 <0>     -0.074600
     17 C17         1.2440   -2.6570    3.9330 c3        1 <0>     -0.082700
     18 C18         4.5400   -9.6950   -3.9420 c3        1 <0>     -0.082700
     19 C19         0.9880   -1.4970    2.9660 c3        1 <0>     -0.098400
     20 C20         3.1340   -9.9190   -4.5070 c3        1 <0>     -0.098400
     21 C21         1.9590   -1.4810    1.7800 c3        1 <0>     -0.024800
     22 C22         2.0420   -9.8670   -3.4330 c3        1 <0>     -0.024800
     23 N1          1.9720   -2.7620    0.9850 na        1 <0>      0.056300
     24 N2          2.0310   -8.6270   -2.6620 na        1 <0>      0.056300
     25 O1         -1.4750   -3.0140    7.2790 o         1 <0>     -0.480100
     26 O2          7.7800   -9.6320   -6.8070 o         1 <0>     -0.480100
     27 O3         -0.4700   -4.9400    7.9480 oh        1 <0>     -0.557700
     28 O4          9.2740   -9.1110   -5.1750 oh        1 <0>     -0.557700
     29 H1          0.1660   -4.3360   -1.3450 ha        1 <0>      0.200800
     30 H2          3.8220   -5.5220    0.6230 ha        1 <0>      0.200800
     31 H3          1.0050   -5.4590   -2.9420 ha        1 <0>      0.200800
     32 H4          3.0150   -7.4630    0.3120 ha        1 <0>      0.200800
     33 H5          0.2180   -2.2270    0.0210 h4        1 <0>      0.228000
     34 H6          3.7260   -3.3640    1.9090 h4        1 <0>      0.228000
     35 H7          1.0670   -7.6330   -4.2020 h4        1 <0>      0.228000
     36 H8          2.9950   -9.5560   -1.0800 h4        1 <0>      0.228000
     37 H9          1.4070   -3.8130    6.4630 hc        1 <0>      0.076200
     38 H10         0.3470   -4.8060    5.4810 hc        1 <0>      0.076200
     39 H11         7.2810  -10.1730   -3.7960 hc        1 <0>      0.076200
     40 H12         7.0430   -8.4500   -4.0110 hc        1 <0>      0.076200
     41 H13        -0.8000   -2.7750    4.6100 hc        1 <0>      0.069900
     42 H14         0.2230   -1.7340    5.5990 hc        1 <0>      0.069900
     43 H15         5.3340   -8.8730   -5.7710 hc        1 <0>      0.069900
     44 H16         5.5560  -10.6150   -5.6130 hc        1 <0>      0.069900
     45 H17         2.2440   -2.5610    4.3700 hc        1 <0>      0.057800
     46 H18         1.2180   -3.6060    3.3840 hc        1 <0>      0.057800
     47 H19         4.7850  -10.4910   -3.2310 hc        1 <0>      0.057800
     48 H20         4.5680   -8.7460   -3.3920 hc        1 <0>      0.057800
     49 H21         1.0350   -0.5460    3.5100 hc        1 <0>      0.068500
     50 H22        -0.0320   -1.5830    2.5700 hc        1 <0>      0.068500
     51 H23         3.0990  -10.8770   -5.0390 hc        1 <0>      0.068500
     52 H24         2.9200   -9.1380   -5.2480 hc        1 <0>      0.068500
     53 H25         1.7270   -0.6310    1.1240 h1        1 <0>      0.110300
     54 H26         2.9750   -1.2990    2.1520 h1        1 <0>      0.110300
     55 H27         1.0600  -10.0340   -3.8950 h1        1 <0>      0.110300
     56 H28         2.1860  -10.7020   -2.7350 h1        1 <0>      0.110300
     57 H29        -1.1180   -4.9890    8.6840 ho        1 <0>      0.430300
     58 H30         9.9750   -9.0930   -5.8610 ho        1 <0>      0.430300
@<TRIPOS>BOND
     1    1    5 2   
     2    1    9 1   
     3    2    6 2   
     4    2    9 1   
     5    3    7 2   
     6    3   10 1   
     7    4    8 2   
     8    4   10 1   
     9    5   23 1   
    10    6   23 1   
    11    7   24 1   
    12    8   24 1   
    13    9   10 2   
    14   11   13 1   
    15   11   25 2   
    16   11   27 1   
    17   12   14 1   
    18   12   26 2   
    19   12   28 1   
    20   13   15 1   
    21   14   16 1   
    22   15   17 1   
    23   16   18 1   
    24   17   19 1   
    25   18   20 1   
    26   19   21 1   
    27   20   22 1   
    28   21   23 1   
    29   22   24 1   
    30    1   29 1   
    31    2   30 1   
    32    3   31 1   
    33    4   32 1   
    34    5   33 1   
    35    6   34 1   
    36    7   35 1   
    37    8   36 1   
    38   13   37 1   
    39   13   38 1   
    40   14   39 1   
    41   14   40 1   
    42   15   41 1   
    43   15   42 1   
    44   16   43 1   
    45   16   44 1   
    46   17   45 1   
    47   17   46 1   
    48   18   47 1   
    49   18   48 1   
    50   19   49 1   
    51   19   50 1   
    52   20   51 1   
    53   20   52 1   
    54   21   53 1   
    55   21   54 1   
    56   22   55 1   
    57   22   56 1   
    58   27   57 1   
    59   28   58 1   
@<TRIPOS>SUBSTRUCTURE
     1 <0>         1 TEMP              0 ****  ****    0 ROOT
